/*--------------------------------*- C++ -*----------------------------------*\
| =========                 |                                                 |
| \\      /  F ield         | OpenFOAM: The Open Source CFD Toolbox           |
|  \\    /   O peration     | Version:  4.0                                   |
|   \\  /    A nd           | Web:      www.OpenFOAM.org                      |
|    \\/     M anipulation  |                                                 |
\*---------------------------------------------------------------------------*/
FoamFile
{
    version     2.0;
    format      ascii;
    class       dictionary;
    location    "system/fuel";
    object      fvSolution;
}
// * * * * * * * * * * * * * * * * * * * * * * * * * * * * * * * * * * * * * //

solvers
{
    p
    {
        solver           PCG;
        preconditioner   DIC;
        tolerance        1e-09;
        relTol           0.0;
        minIter          1;
        maxIter          700;
    }

    U
    {
        solver           PBiCG;
        preconditioner   DILU;
        tolerance        1e-09;
        relTol           0.0;
        minIter          1;
        maxIter          700;
    }

    Yi
    {
        solver           PBiCG;
        preconditioner   DILU;
        tolerance        1e-09;
        relTol           0.0;
        minIter          1;
        maxIter          1000;
    }

    yH2O
    {
        solver           PBiCG;
        preconditioner   DILU;
        tolerance        1e-09;
        relTol           0.0;
        minIter          1;
        maxIter          1000;
    }
    yCH3OH
    {
        solver           PBiCG;
        preconditioner   DILU;
        tolerance        1e-09;
        relTol           0.0;
        minIter          1;
        maxIter          1000;
    }
    yCO2
    {
        solver           PBiCG;
        preconditioner   DILU;
        tolerance        1e-09;
        relTol           0.0;
        minIter          1;
        maxIter          1000;
    }
}

PISO
{
    nIteration                 0;
    nCorrectors                2;
    nNonOrthogonalCorrectors   0;
    pRefCell                   0;
    pRefValue                  0;
}

relaxationFactors
{
    p               0.3;
    U               0.7;
    yCH3OHfuel      0.5;
    yH2O            0.5;
    yCO2fuel        0.5;
}

// ************************************************************************* //
